       8
 i =        0, time =        0.000, E =       -31.2978853728
 Si         0.0000000000        0.0000000000        0.0000000000
 Si         0.0000000000        2.7153487000        2.7153487000
 Si         2.7153487000        2.7153487000        0.0000000000
 Si         2.7153487000        0.0000000000        2.7153487000
 Si         4.0730231000        1.3576744000        4.0730231000
 Si         1.3576744000        1.3576744000        1.3576744000
 Si         1.3576744000        4.0730231000        4.0730231000
 Si         4.0730231000        4.0730231000        1.3576744000
       8
 i =        1, time =        0.500, E =       -31.2978903354
 Si         0.0016383385       -0.0001721499       -0.0006238612
 Si        -0.0000657767        2.7160970060        2.7143725504
 Si         2.7136670506        2.7156518890       -0.0018471601
 Si         2.7177623600       -0.0010352377        2.7164197878
 Si         4.0752014230        1.3578495204        4.0733437423
 Si         1.3577499527        1.3579175611        1.3598641839
 Si         1.3566870268        4.0732906063        4.0743347685
 Si         4.0694520250        4.0724932049        1.3562283885
       8
 i =        2, time =        1.000, E =       -31.2979052852
 Si         0.0032756726       -0.0003437104       -0.0012419769
 Si        -0.0001344763        2.7168490487        2.7133950184
 Si         2.7119819817        2.7159506528       -0.0036953940
 Si         2.7201761805       -0.0020699682        2.7174949846
 Si         4.0773833263        1.3580258103        4.0736642410
 Si         1.3578288759        1.3581590860        1.3620556567
 Si         1.3556996868        4.0735588711        4.0756425358
 Si         4.0658811525        4.0719626098        1.3547773344
       8
 i =        3, time =        1.500, E =       -31.2979303428
 Si         0.0049109769       -0.0005141199       -0.0018486869
 Si        -0.0002090025        2.7176085071        2.7124147394
 Si         2.7102900940        2.7162405146       -0.0055457615
 Si         2.7225903290       -0.0031037049        2.7185784065
 Si         4.0795723667        1.3582045036        4.0739844738
 Si         1.3579144916        1.3583973571        1.3642504927
 Si         1.3547124450        4.0738286606        4.0769425026
 Si         4.0623106994        4.0714306817        1.3533162334
       8
 i =        4, time =        2.000, E =       -31.2979656110
 Si         0.0065431987       -0.0006828491       -0.0024384492
 Si        -0.0002922176        2.7183789795        2.7114303865
 Si         2.7085880403        2.7165169709       -0.0073992905
 Si         2.7250049622       -0.0041359798        2.7196741472
 Si         4.0817720397        1.3583868923        4.0743043346
 Si         1.3580100514        1.3586307841        1.3664503252
 Si         1.3537254076        4.0741007430        4.0782307899
 Si         4.0587409176        4.0708968590        1.3518401563
